@<TRIPOS>MOLECULE
3ERT.A
59 61 1 0 0 
SMALL
USER_CHARGES


@<TRIPOS>ATOM
  1 C10     30.5740     1.4650    29.5500 C.3   1 OHT  -0.0911 
  2 H101    30.0943     1.6767    30.5056 H     1 OHT   0.0412 
  3 H102    29.9704     1.8771    28.7413 H     1 OHT   0.0412 
  4 H103    31.5645     1.9196    29.5320 H     1 OHT   0.0412 
  5 C9      30.7020    -0.0230    29.3720 C.3   1 OHT  -0.0526 
  6 H91     29.7067    -0.4666    29.3990 H     1 OHT   0.0592 
  7 H92     31.3008    -0.4240    30.1897 H     1 OHT   0.0592 
  8 C8      31.3630    -0.3880    28.0590 C.2   1 OHT  -0.0138 
  9 C11     32.7880     0.0530    27.9620 C.ar  1 OHT  -0.0696 
 10 C16     33.2410     0.7820    26.8420 C.ar  1 OHT  -0.1167 
 11 H16     32.5617     0.9911    26.0289 H     1 OHT   0.1364 
 12 C15     34.5590     1.2350    26.7760 C.ar  1 OHT  -0.1316 
 13 H15     34.8866     1.7936    25.9117 H     1 OHT   0.1353 
 14 C14     35.4510     0.9800    27.7990 C.ar  1 OHT  -0.1227 
 15 H14     36.4694     1.3341    27.7371 H     1 OHT   0.1364 
 16 C13     35.0270     0.2700    28.8970 C.ar  1 OHT  -0.1316 
 17 H13     35.7161     0.0646    29.7028 H     1 OHT   0.1353 
 18 C12     33.7070    -0.1880    28.9760 C.ar  1 OHT  -0.1167 
 19 H12     33.3944    -0.7433    29.8479 H     1 OHT   0.1364 
 20 C7      30.7080    -1.0570    27.0650 C.2   1 OHT  -0.0278 
 21 C1      29.2100    -1.2330    27.0160 C.ar  1 OHT  -0.0991 
 22 C2      28.6090    -2.4900    26.6950 C.ar  1 OHT  -0.0823 
 23 H2      29.2345    -3.3529    26.5202 H     1 OHT   0.1400 
 24 C3      27.2150    -2.6130    26.6050 C.ar  1 OHT  -0.1887 
 25 H3      26.7650    -3.5643    26.3621 H     1 OHT   0.1477 
 26 C4      26.4090    -1.4820    26.8350 C.ar  1 OHT   0.1346 
 27 O4      25.0580    -1.6220    26.7220 O.3   1 OHT  -0.4885 
 28 H4      24.7704    -2.2969    26.1028 H     1 OHT   0.4222 
 29 C5      26.9920    -0.2350    27.1560 C.ar  1 OHT  -0.1887 
 30 H5      26.3695     0.6292    27.3347 H     1 OHT   0.1477 
 31 C6      28.3750    -0.1340    27.2390 C.ar  1 OHT  -0.0823 
 32 H6      28.8177     0.8205    27.4827 H     1 OHT   0.1400 
 33 C17     31.4110    -1.6900    25.9450 C.ar  1 OHT  -0.0395 
 34 C18     32.5290    -2.4960    26.1460 C.ar  1 OHT  -0.0830 
 35 H18     32.8934    -2.6378    27.1527 H     1 OHT   0.1576 
 36 C19     33.1820    -3.1140    25.1170 C.ar  1 OHT  -0.1658 
 37 H19     34.0472    -3.7299    25.3130 H     1 OHT   0.1388 
 38 C20     32.7250    -2.9440    23.8200 C.ar  1 OHT   0.0810 
 39 O20     33.2960    -3.5540    22.7400 O.3   1 OHT  -0.3591 
 40 C23     32.9000    -3.1830    21.4230 C.3   1 OHT   0.1039 
 41 H231    32.6790    -2.1164    21.3828 H     1 OHT   0.0775 
 42 H232    32.0181    -3.7483    21.1218 H     1 OHT   0.0775 
 43 C24     34.0590    -3.5080    20.5200 C.3   1 OHT   0.0953 
 44 H241    34.9830    -3.2693    21.0466 H     1 OHT   0.1160 
 45 H242    33.9813    -2.8911    19.6247 H     1 OHT   0.1160 
 46 N24     34.1090    -4.8870    20.1180 N.4   1 OHT  -0.6793 
 47 H24     33.6720    -5.4318    20.8477 H     1 OHT   0.4655 
 48 C25     33.3900    -5.1110    18.8630 C.3   1 OHT   0.0824 
 49 H251    33.8547    -4.5267    18.0688 H     1 OHT   0.1058 
 50 H252    32.3508    -4.8036    18.9798 H     1 OHT   0.1058 
 51 H253    33.4291    -6.1695    18.6058 H     1 OHT   0.1058 
 52 C26     35.5060    -5.2910    19.9220 C.3   1 OHT   0.0824 
 53 H261    35.9510    -4.6878    19.1307 H     1 OHT   0.1058 
 54 H262    35.5439    -6.3436    19.6414 H     1 OHT   0.1058 
 55 H263    36.0608    -5.1417    20.8483 H     1 OHT   0.1058 
 56 C21     31.6010    -2.1350    23.5790 C.ar  1 OHT  -0.1658 
 57 H21     31.2407    -1.9937    22.5707 H     1 OHT   0.1388 
 58 C22     30.9660    -1.5280    24.6260 C.ar  1 OHT  -0.0830 
 59 H22     30.1019    -0.9096    24.4326 H     1 OHT   0.1576 
@<TRIPOS>BOND
  1   1   2  1   
  2   1   3  1   
  3   1   4  1   
  4   1   5  1   
  5   5   6  1   
  6   5   7  1   
  7   5   8  1   
  8   8   9  1   
  9   8  20  2   
 10   9  10  ar  
 11   9  18  ar  
 12  10  11  1   
 13  10  12  ar  
 14  12  13  1   
 15  12  14  ar  
 16  14  15  1   
 17  14  16  ar  
 18  16  17  1   
 19  16  18  ar  
 20  18  19  1   
 21  20  21  1   
 22  20  33  1   
 23  21  22  ar  
 24  21  31  ar  
 25  22  23  1   
 26  22  24  ar  
 27  24  25  1   
 28  24  26  ar  
 29  26  27  1   
 30  26  29  ar  
 31  27  28  1   
 32  29  30  1   
 33  29  31  ar  
 34  31  32  1   
 35  33  34  ar  
 36  33  58  ar  
 37  34  35  1   
 38  34  36  ar  
 39  36  37  1   
 40  36  38  ar  
 41  38  39  1   
 42  38  56  ar  
 43  39  40  1   
 44  40  41  1   
 45  40  42  1   
 46  40  43  1   
 47  43  44  1   
 48  43  45  1   
 49  43  46  1   
 50  46  47  1   
 51  46  48  1   
 52  46  52  1   
 53  48  49  1   
 54  48  50  1   
 55  48  51  1   
 56  52  53  1   
 57  52  54  1   
 58  52  55  1   
 59  56  57  1   
 60  56  58  ar  
 61  58  59  1   
@<TRIPOS>SUBSTRUCTURE
  1 OHT  33 GROUP 4 A **** 0

# MOE 2016.08 (io_trps.svl 2017.01)
