@<TRIPOS>MOLECULE
3ERT.A
59 61 1 0 0 
SMALL
USER_CHARGES


@<TRIPOS>ATOM
  1 C10     53.2855    48.0012    58.7221 C.3   1 OHT  -0.2400 
  2 H101    52.8061    48.2130    59.6778 H     1 OHT   0.0800 
  3 H102    52.6818    48.4133    57.9135 H     1 OHT   0.0800 
  4 H103    54.2761    48.4557    58.7039 H     1 OHT   0.0800 
  5 C9      53.4132    46.5132    58.5443 C.3   1 OHT  -0.0218 
  6 H91     52.4179    46.0698    58.5715 H     1 OHT   0.0800 
  7 H92     54.0121    46.1121    59.3619 H     1 OHT   0.0800 
  8 C8      54.0740    46.1479    57.2312 C.2   1 OHT  -0.1666 
  9 C11     55.4990    46.5887    57.1339 C.ar  1 OHT   0.0284 
 10 C16     55.9519    47.3175    56.0138 C.ar  1 OHT  -0.1500 
 11 H16     55.2725    47.5266    55.2007 H     1 OHT   0.1500 
 12 C15     57.2700    47.7703    55.9475 C.ar  1 OHT  -0.1500 
 13 H15     57.5976    48.3287    55.0831 H     1 OHT   0.1500 
 14 C14     58.1621    47.5152    56.9704 C.ar  1 OHT  -0.1500 
 15 H14     59.1806    47.8692    56.9082 H     1 OHT   0.1500 
 16 C13     57.7382    46.8054    58.0685 C.ar  1 OHT  -0.1500 
 17 H13     58.4274    46.5999    58.8742 H     1 OHT   0.1500 
 18 C12     56.4181    46.3476    58.1478 C.ar  1 OHT  -0.1500 
 19 H12     56.1056    45.7924    59.0198 H     1 OHT   0.1500 
 20 C7      53.4187    45.4789    56.2374 C.2   1 OHT  -0.0568 
 21 C1      51.9206    45.3032    56.1886 C.ar  1 OHT   0.0284 
 22 C2      51.3194    44.0462    55.8679 C.ar  1 OHT  -0.1500 
 23 H2      51.9447    43.1832    55.6930 H     1 OHT   0.1500 
 24 C3      49.9254    43.9235    55.7781 C.ar  1 OHT  -0.1500 
 25 H3      49.4752    42.9722    55.5354 H     1 OHT   0.1500 
 26 C4      49.1196    45.0546    56.0081 C.ar  1 OHT   0.0825 
 27 O4      47.7685    44.9148    55.8954 O.3   1 OHT  -0.5325 
 28 H4      47.4807    44.2399    55.2763 H     1 OHT   0.4500 
 29 C5      49.7028    46.3015    56.3289 C.ar  1 OHT  -0.1500 
 30 H5      49.0805    47.1659    56.5076 H     1 OHT   0.1500 
 31 C6      51.0859    46.4023    56.4117 C.ar  1 OHT  -0.1500 
 32 H6      51.5288    47.3568    56.6552 H     1 OHT   0.1500 
 33 C17     54.1214    44.8457    55.1173 C.ar  1 OHT   0.0284 
 34 C18     55.2393    44.0395    55.3182 C.ar  1 OHT  -0.1500 
 35 H18     55.6038    43.8978    56.3249 H     1 OHT   0.1500 
 36 C19     55.8920    43.4213    54.2892 C.ar  1 OHT  -0.1500 
 37 H19     56.7572    42.8053    54.4851 H     1 OHT   0.1500 
 38 C20     55.4348    43.5913    52.9922 C.ar  1 OHT   0.0825 
 39 O20     56.0056    42.9811    51.9122 O.3   1 OHT  -0.3625 
 40 C23     55.6094    43.3520    50.5952 C.3   1 OHT   0.1200 
 41 H231    55.3886    44.4186    50.5549 H     1 OHT   0.0800 
 42 H232    54.7273    42.7868    50.2942 H     1 OHT   0.0800 
 43 C24     56.7682    43.0267    49.6921 C.3   1 OHT   0.3430 
 44 H241    57.6923    43.2653    50.2185 H     1 OHT   0.0800 
 45 H242    56.6904    43.6435    48.7967 H     1 OHT   0.0800 
 46 N24     56.8179    41.6477    49.2902 N.4   1 OHT  -0.9590 
 47 H24     56.3810    41.1030    50.0200 H     1 OHT   0.4500 
 48 C25     56.0986    41.4236    48.0353 C.3   1 OHT   0.2630 
 49 H251    56.5633    42.0078    47.2410 H     1 OHT   0.0800 
 50 H252    55.0595    41.7312    48.1523 H     1 OHT   0.0800 
 51 H253    56.1375    40.3651    47.7782 H     1 OHT   0.0800 
 52 C26     58.2148    41.2434    49.0940 C.3   1 OHT   0.2630 
 53 H261    58.6598    41.8465    48.3025 H     1 OHT   0.0800 
 54 H262    58.2525    40.1908    48.8135 H     1 OHT   0.0800 
 55 H263    58.7698    41.3927    50.0202 H     1 OHT   0.0800 
 56 C21     54.3109    44.4004    52.7513 C.ar  1 OHT  -0.1500 
 57 H21     53.9505    44.5417    51.7431 H     1 OHT   0.1500 
 58 C22     53.6762    45.0076    53.7984 C.ar  1 OHT  -0.1500 
 59 H22     52.8122    45.6261    53.6050 H     1 OHT   0.1500 
@<TRIPOS>BOND
  1   1   2  1   
  2   1   3  1   
  3   1   4  1   
  4   1   5  1   
  5   5   6  1   
  6   5   7  1   
  7   5   8  1   
  8   8   9  1   
  9   8  20  2   
 10   9  10  ar  
 11   9  18  ar  
 12  10  11  1   
 13  10  12  ar  
 14  12  13  1   
 15  12  14  ar  
 16  14  15  1   
 17  14  16  ar  
 18  16  17  1   
 19  16  18  ar  
 20  18  19  1   
 21  20  21  1   
 22  20  33  1   
 23  21  22  ar  
 24  21  31  ar  
 25  22  23  1   
 26  22  24  ar  
 27  24  25  1   
 28  24  26  ar  
 29  26  27  1   
 30  26  29  ar  
 31  27  28  1   
 32  29  30  1   
 33  29  31  ar  
 34  31  32  1   
 35  33  34  ar  
 36  33  58  ar  
 37  34  35  1   
 38  34  36  ar  
 39  36  37  1   
 40  36  38  ar  
 41  38  39  1   
 42  38  56  ar  
 43  39  40  1   
 44  40  41  1   
 45  40  42  1   
 46  40  43  1   
 47  43  44  1   
 48  43  45  1   
 49  43  46  1   
 50  46  47  1   
 51  46  48  1   
 52  46  52  1   
 53  48  49  1   
 54  48  50  1   
 55  48  51  1   
 56  52  53  1   
 57  52  54  1   
 58  52  55  1   
 59  56  57  1   
 60  56  58  ar  
 61  58  59  1   
@<TRIPOS>SUBSTRUCTURE
  1 OHT  33 GROUP 4 A **** 0

# MOE 2016.08 (io_trps.svl 2017.01)
