@<TRIPOS>MOLECULE
xxxx.E
33 34 1 0 0 
SMALL
USER_CHARGES


@<TRIPOS>ATOM
  1 C1      36.2730   -42.7900    77.9290 C.3   1 LIG   0.1149 
  2 H1      35.7787   -42.6512    78.8905 H     1 LIG   0.0400 
  3 H2      36.0168   -41.9635    77.2661 H     1 LIG   0.0400 
  4 H3      37.3527   -42.8166    78.0760 H     1 LIG   0.0400 
  5 C10     42.1270   -40.3670    74.6190 C.ar  1 LIG  -0.1804 
  6 H4      42.2700   -40.7008    75.6361 H     1 LIG   0.1317 
  7 C11     42.6210   -39.1390    74.2160 C.ar  1 LIG  -0.0996 
  8 H5      43.1460   -38.5171    74.9259 H     1 LIG   0.1368 
  9 C12     42.4520   -38.6980    72.9190 C.ar  1 LIG  -0.1481 
 10 H6      42.8406   -37.7397    72.6075 H     1 LIG   0.1490 
 11 C13     41.7780   -39.5050    72.0310 C.ar  1 LIG   0.0408 
 12 C14     41.2760   -40.7360    72.3980 C.ar  1 LIG  -0.1407 
 13 H7      40.7591   -41.3540    71.6788 H     1 LIG   0.1790 
 14 C15     37.6990   -44.2500    75.8160 C.ar  1 LIG  -0.1688 
 15 H8      38.3795   -43.8434    76.5495 H     1 LIG   0.1352 
 16 C2      36.3520   -44.3800    76.1240 C.ar  1 LIG   0.1076 
 17 C3      35.4750   -44.9100    75.1880 C.ar  1 LIG  -0.1340 
 18 H9      34.4273   -45.0204    75.4256 H     1 LIG   0.1505 
 19 C4      35.9530   -45.2960    73.9480 C.ar  1 LIG  -0.1085 
 20 H10     35.2744   -45.7094    73.2165 H     1 LIG   0.1379 
 21 C5      37.2940   -45.1560    73.6390 C.ar  1 LIG  -0.1224 
 22 H11     37.6535   -45.4518    72.6645 H     1 LIG   0.1406 
 23 C6      38.1790   -44.6390    74.5710 C.ar  1 LIG  -0.0627 
 24 C7      39.6370   -44.4710    74.2350 C.3   1 LIG  -0.1038 
 25 H12     39.9279   -45.2354    73.5145 H     1 LIG   0.0723 
 26 H13     40.2283   -44.5844    75.1436 H     1 LIG   0.0723 
 27 C8      39.8980   -43.1050    73.6410 C.2   1 LIG   0.6172 
 28 C9      41.4460   -41.1700    73.7110 C.ar  1 LIG   0.0748 
 29 N1      40.9550   -42.4220    74.1510 N.am  1 LIG  -0.4822 
 30 H14     41.4412   -42.8523    74.9247 H     1 LIG   0.3168 
 31 O1      35.8430   -44.0160    77.3470 O.3   1 LIG  -0.3334 
 32 O2      39.1820   -42.6690    72.7500 O.2   1 LIG  -0.5216 
 33 CL1     41.5340   -38.9720    70.3920 Cl    1 LIG  -0.0911 
@<TRIPOS>BOND
  1   1   2  1   
  2   1   3  1   
  3   1   4  1   
  4   1  31  1   
  5   5   6  1   
  6   5   7  ar  
  7   5  28  ar  
  8   7   8  1   
  9   7   9  ar  
 10   9  10  1   
 11   9  11  ar  
 12  11  12  ar  
 13  11  33  1   
 14  12  13  1   
 15  12  28  ar  
 16  14  15  1   
 17  14  16  ar  
 18  14  23  ar  
 19  16  17  ar  
 20  16  31  1   
 21  17  18  1   
 22  17  19  ar  
 23  19  20  1   
 24  19  21  ar  
 25  21  22  1   
 26  21  23  ar  
 27  23  24  1   
 28  24  25  1   
 29  24  26  1   
 30  24  27  1   
 31  27  29  am  
 32  27  32  2   
 33  28  29  1   
 34  29  30  1   
@<TRIPOS>SUBSTRUCTURE
  1 LIG  27 GROUP 4 E **** 0

# MOE 2016.08 (io_trps.svl 2017.01)
